32
charge=0,multiplicity=1,solvent=cyclohexane
C   0.000003   3.559922   1.235263
C   0.000000   2.864543   -0.000000
C   0.000000   1.426175   -0.000000
C   0.000001   0.721271   1.245797
C   0.000005   1.472900   2.459347
C   0.000006   2.862278   2.445297
C   -0.000001   0.721271   -1.245797
C   -0.000001   -0.721271   1.245797
C   -0.000000   -1.426175   0.000000
C   0.000001   -0.721271   -1.245797
C   -0.000000   -2.864543   0.000000
C   -0.000003   -3.559922   1.235263
C   -0.000006   -2.862278   2.445297
C   -0.000005   -1.472900   2.459347
H   0.000003   4.652375   1.225705
H   0.000009   3.411363   3.389810
H   -0.000003   -4.652375   1.225705
H   -0.000009   -3.411363   3.389810
C   -0.000003   3.559922   -1.235263
C   -0.000006   2.862278   -2.445297
C   -0.000005   1.472900   -2.459347
H   -0.000003   4.652375   -1.225705
H   -0.000009   3.411363   -3.389810
C   0.000005   -1.472900   -2.459347
C   0.000003   -3.559922   -1.235263
H   0.000003   -4.652375   -1.225705
C   0.000006   -2.862278   -2.445297
H   0.000009   -3.411363   -3.389810
H   0.000009   0.957459   3.418194
H   -0.000009   -0.957459   3.418194
H   0.000009   -0.957459   -3.418194
H   -0.000009   0.957459   -3.418194