19
charge=0,multiplicity=1,solvent=acetonitrile
 C   -0.5387114853   1.2340733392   0.0151696701
 C   -1.9882137711   1.1628717159   0.0153328341
 C   -1.9881452493   -1.1629536566   0.0153025977
 C   -0.5386384486   -1.2340687717   0.0151423336
 C   0.1663226016   0.0000214373   0.0150624814
 H   -0.0345620876   2.1958307937   0.0151337669
 H   -2.5787917104   -2.084701214   0.0153790928
 H   -0.0344286193   -2.1957960497   0.0150647313
 N   -2.6541184208   -0.0000597551   0.0154840876
 H   -2.5789144841   2.0845848121   0.0154365915
 N   1.5428890287   0.0000480823   0.0147543755
 C   2.2934617182   -1.2504577429   0.0143656701
 H   3.3651292163   -1.0334834547   0.0150169186
 H   2.0377325157   -1.8413180868   0.9058840836
 H   2.038615056   -1.8402454322   -0.878138939
 C   2.2934383382   1.2505695833   0.0143384796
 H   3.3651093941   1.0336129008   0.0148989
 H   2.038512247   1.8403764966   -0.8781289827
 H   2.0377731607   1.8414020024   0.9058943073
