41
charge=0,multiplicity=1,solvent=1,2-ethanediol
 C   -1.2866980352   1.2156758181   -0.053963109
 C   -2.4699588092   1.8058210439   0.429977133
 C   -1.3912576802   -0.0828721694   -0.5849031969
 C   -3.6875086609   1.1411446434   0.4056255159
 H   -2.4124003845   2.8164056517   0.8382426515
 C   -2.6034744111   -0.7634244706   -0.6293729907
 H   -0.5055187001   -0.5718982132   -0.9941187005
 H   -4.5666097189   1.6428181186   0.807187367
 H   -2.6250415499   -1.7619263683   -1.0627595227
 C   1.2738787895   1.2344902208   -0.0446553471
 C   2.3792977731   1.7126939394   -0.7716011034
 C   1.4675093515   0.069344167   0.7197214157
 C   3.6110456004   1.0700690516   -0.7486118918
 H   2.265608025   2.6053917074   -1.3923918817
 C   2.6957291838   -0.5802256859   0.7703641034
 H   0.6399790039   -0.3298921013   1.3095766269
 H   4.4237502194   1.4767177836   -1.3481529635
 H   2.7903730518   -1.4679268266   1.3935367994
 C   -3.7933480108   -0.1735909381   -0.1270809958
 C   3.8099061933   -0.1009798818   0.031101489
 N   -4.9921685377   -0.8410333098   -0.1533159054
 N   5.0232242213   -0.7420325234   0.0655854779
 C   -6.1929810107   -0.2017260813   0.3488770944
 H   -6.4323191396   0.7237815047   -0.2049815779
 H   -7.0409915692   -0.8881193315   0.2411641652
 H   -6.1042416107   0.06270206   1.4177090915
 C   -5.066206474   -2.180043356   -0.7044975789
 H   -4.4093120955   -2.8845529285   -0.1640455982
 H   -6.0953011089   -2.5492576282   -0.6239313153
 H   -4.7776902827   -2.2065063803   -1.7708579426
 C   5.1868439161   -1.9458879255   0.8567902496
 H   4.5015529829   -2.7496244334   0.532867832
 H   6.2136819348   -2.3142227224   0.7482665742
 H   5.0031484052   -1.763899194   1.9309583454
 C   6.1422244829   -0.2223914203   -0.6959519187
 H   7.0192923403   -0.8592197394   -0.5315007817
 H   5.9335469109   -0.2051511927   -1.7809128747
 H   6.4073499924   0.805658726   -0.3908922582
 C   -0.0144829241   1.9832826153   -0.0445808426
 N   -0.0737928357   3.2731830377   -0.0345560635
 H   0.8733949714   3.6613204126   0.0300411289
