22
charge=0,multiplicity=1,solvent=cyclohexane
 C   -2.8557220011   -1.2220615124   0.0000664893
 C   -1.4822720996   -1.2382227028   0.0000605304
 C   -0.7018731011   -0.0000022538   -0.0000000908
 C   -1.4822717915   1.2382183048   -0.0000607355
 C   -2.8557216374   1.2220573573   -0.0000667722
 C   -3.5758044361   -0.0000019752   -0.0000001669
 H   -3.4036102504   -2.1677819676   0.0000837711
 H   -0.9683186423   -2.1976263687   0.0002209459
 H   -0.9683181479   2.1976217494   -0.0002210988
 H   -3.4036096902   2.1677779144   -0.0000840739
 H   -4.6669022952   -0.0000018302   -0.0000002003
 C   0.7018731009   -0.000002371   -0.0000000908
 C   1.4822719983   1.2382180572   0.0000605399
 C   1.4822718929   -1.2382229503   -0.0000606989
 C   2.8557218416   1.2220568803   0.0000665774
 H   0.9683185149   2.1976215878   0.0002208924
 C   2.8557217971   -1.2220619891   -0.0000666573
 H   0.9683182754   -2.1976265304   -0.0002211043
 C   3.5758044361   -0.0000025723   -0.0000000141
 H   3.4036100521   2.1677773458   0.0000838688
 H   3.4036098885   -2.1677825357   -0.0000839286
 H   4.666902295   -0.0000026095   0.0000000198
