24
charge=0,multiplicity=1,solvent=water
N   -3.231878   -1.331360   -0.094790
H   -3.978762   -0.835176   0.395252
C   -1.980047   -0.661794   0.282496
H   -1.651492   -0.959229   1.300338
C   -0.891565   -1.139123   -0.730638
C   -2.136334   0.848554   0.241760
H   -0.913458   -2.236849   -0.779572
H   -1.216599   -0.720317   -1.695188
C   0.481438   -0.668244   -0.433583
O   -2.168055   1.483203   -0.879620
C   0.837951   0.696276   -0.678743
C   1.455928   -1.546240   0.125117
H   0.061207   1.350243   -1.078455
C   2.097623   1.155589   -0.393598
C   2.719493   -1.102404   0.426202
H   1.183220   -2.584911   0.316776
H   2.380243   2.193269   -0.581331
C   3.057717   0.260786   0.167842
H   3.480249   -1.753689   0.856126
O   4.279762   0.636511   0.470600
H   4.437593   1.575390   0.266366
H   -3.246924   -2.290996   0.255502
O   -3.148492   1.189919   1.217417
H   -3.471081   2.044316   0.899409