18
charge=-1,multiplicity=1,solvent=Water
N   4.483923   -1.030650   -0.000024
C   3.360438   -0.707128   0.000036
C   1.994572   -0.345955   0.000014
C   0.959755   -1.329569   -0.000017
C   -0.401583   -0.868884   -0.000013
C   -1.536076   -1.731771   0.000009
C   -2.829735   -1.242394   0.000008
C   -3.100810   0.180091   -0.000044
O   -4.274224   0.650450   0.000032
C   -1.936912   1.047145   -0.000015
C   -0.653336   0.531960   -0.000014
O   0.380530   1.444542   -0.000016
C   1.714653   1.072644   0.000031
O   2.535095   1.976361   0.000004
H   1.192411   -2.393227   -0.000027
H   -1.357832   -2.810258   0.000031
H   -3.688684   -1.917405   0.000034
H   -2.090354   2.127783   -0.000006