23
charge=0,multiplicity=1,solvent=ethanol
C   3.636186   -0.756996   0.000005
C   2.386063   -1.414591   0.000010
C   1.168746   -0.694399   0.000006
C   1.226385   0.751217   -0.000004
C   2.487109   1.381232   -0.000008
C   3.687625   0.632721   -0.000003
C   0.000000   1.460478   -0.000010
C   -1.226385   0.751217   -0.000005
C   -1.168746   -0.694399   0.000006
C   -2.386063   -1.414591   0.000008
H   -2.327793   -2.504879   0.000015
C   -3.636186   -0.756996   0.000003
C   -3.687625   0.632721   -0.000006
C   -2.487109   1.381232   -0.000010
H   4.556074   -1.345111   0.000009
H   2.327793   -2.504879   0.000017
H   2.531171   2.473412   -0.000015
H   4.647570   1.152707   -0.000007
H   0.000000   2.553334   -0.000018
H   -4.556074   -1.345111   0.000005
H   -4.647570   1.152707   -0.000010
H   -2.531171   2.473412   -0.000017
N   0.000000   -1.379808   0.000010