41
charge=0,multiplicity=1,solvent=1,2-ethanediol
C   1.270444   1.029921   -0.024871
C   2.534715   1.707718   -0.015031
C   1.344906   -0.399706   -0.062841
C   3.740182   1.021373   -0.051614
H   2.530893   2.798393   0.032026
C   2.554030   -1.078700   -0.099890
H   0.421439   -0.985687   -0.055704
H   4.661784   1.604489   -0.035844
H   2.527993   -2.168400   -0.123354
C   -1.255141   1.039310   0.009355
C   -1.915353   0.714852   1.224095
C   -1.923822   0.735229   -1.205913
C   -3.129161   0.065916   1.237047
H   -1.427963   0.965969   2.167597
C   -3.136282   0.083435   -1.221317
H   -1.444732   1.005277   -2.148447
H   -3.585058   -0.193187   2.189884
H   -3.601094   -0.154784   -2.175309
C   3.801094   -0.395835   -0.113286
C   -3.779134   -0.278640   0.007178
N   5.028110   -1.089109   -0.205053
N   -4.968670   -0.923194   0.006753
C   6.234741   -0.365752   0.132313
H   6.247372   0.011312   1.178597
H   7.103779   -1.024363   -0.002516
H   6.377763   0.502859   -0.529586
C   5.030019   -2.497916   0.125408
H   4.367307   -3.067421   -0.544899
H   6.044346   -2.900367   -0.002490
H   4.704872   -2.708288   1.167973
C   -5.620190   -1.294657   -1.247357
H   -4.946873   -1.901741   -1.868348
H   -6.515553   -1.881665   -1.024546
H   -5.915520   -0.397969   -1.812629
C   -5.643967   -1.249274   1.261096
H   -6.602922   -1.724809   1.037611
H   -5.035853   -1.943351   1.859954
H   -5.829696   -0.339560   1.849541
C   0.045193   1.750784   0.012234
N   -0.053916   3.095691   0.050199
H   -1.034602   3.391213   0.077550