32
charge=0,multiplicity=1,solvent=cyclohexane
 C   3.5774675733   1.2347428302   0.0000117579
 C   2.8763886183   -0.0000000038   0.0000007423
 C   1.4398543791   -0.0000000147   0.0000003139
 C   0.7379738626   1.2502595964   0.0000068558
 C   1.4775891979   2.4310055857   0.0000163749
 C   2.885816488   2.4267422601   0.000019762
 C   0.7379738743   -1.2502596382   -0.0000065357
 C   -0.7379738626   1.2502595964   -0.0000070528
 C   -1.4398543791   -0.0000000147   -0.0000005109
 C   -0.7379738743   -1.2502596382   0.0000063388
 C   -2.8763886183   -0.0000000038   -0.0000009392
 C   -3.5774675733   1.2347428302   -0.0000119549
 C   -2.885816488   2.4267422601   -0.0000199589
 C   -1.4775891979   2.4310055857   -0.0000165719
 H   4.6699053649   1.2205337848   0.0000126737
 H   3.4238319589   3.3774256699   0.0000286102
 H   -4.6699053649   1.2205337848   -0.0000128707
 H   -3.4238319589   3.3774256699   -0.0000288072
 C   3.5774676016   -1.2347428095   -0.0000097749
 C   2.8858165443   -2.426742248   -0.0000178745
 C   1.4775892477   -2.4310056066   -0.000015235
 H   4.669905393   -1.220533734   -0.0000101343
 H   3.4238320322   -3.3774256484   -0.0000261788
 C   -1.4775892477   -2.4310056066   0.000015038
 C   -3.5774676016   -1.2347428095   0.0000095779
 H   -4.669905393   -1.220533734   0.0000099373
 C   -2.8858165443   -2.426742248   0.0000176775
 H   -3.4238320322   -3.3774256484   0.0000259818
 H   0.9690793623   3.3944526741   0.0000211744
 H   -0.9690793623   3.3944526741   -0.0000213714
 H   -0.9690794575   -3.3944527133   0.0000196879
 H   0.9690794575   -3.3944527133   -0.0000198849
