37
charge=0,multiplicity=1,solvent=1,4-dioxane
C   1.336896   -2.420142   0.866943
C   0.201298   -1.939003   0.219870
C   0.184426   -0.681935   -0.457166
C   1.383184   0.076857   -0.534680
C   2.565987   -0.483552   0.067213
C   2.517551   -1.688557   0.807870
H   1.305310   -3.374167   1.395168
H   -0.714777   -2.527869   0.231634
C   -1.030361   -0.128218   -1.019048
C   1.370955   1.389054   -1.126525
H   3.427252   -2.080744   1.261863
C   0.182602   1.872479   -1.704679
C   -0.992486   1.144059   -1.671403
H   2.248111   2.027761   -1.082327
H   0.186407   2.853176   -2.188190
H   -1.907749   1.527535   -2.119461
N   3.799520   0.139280   -0.075522
C   4.292512   0.569181   -1.372266
H   3.490433   0.559527   -2.115026
H   4.727661   1.578911   -1.306213
H   5.089606   -0.124858   -1.697595
C   4.804733   0.055800   0.964675
H   4.333005   -0.029770   1.949934
H   5.485500   -0.801760   0.807847
H   5.415573   0.971332   0.939149
S   -2.611614   -0.765574   -0.638618
O   -2.634432   -2.238874   -0.652271
O   -3.600960   -0.007047   -1.417299
N   -2.983140   -0.395511   1.003456
H   -2.451167   -1.014903   1.617456
C   -2.815159   0.998620   1.358223
H   -3.434349   1.232524   2.242575
H   -3.185641   1.632865   0.541608
C   -1.381394   1.364349   1.709639
O   -0.580266   0.588632   2.177709
O   -1.118942   2.660171   1.497172
H   -0.191676   2.816233   1.749457