37
charge=0,multiplicity=1,solvent=ethanol
 C   -0.0674845762   3.7650498848   -0.7217171356
 C   0.481672399   2.502910292   -0.6411347135
 C   -0.322911417   1.3438977123   -0.4034865898
 C   -1.7290645124   1.5840365171   -0.2153489645
 C   -2.2873015451   2.8520521057   -0.295234936
 C   -1.463928228   3.953357241   -0.5569437983
 C   0.1838320432   0.0317298343   -0.303281258
 C   -2.1261049458   -0.7191419594   0.1475255861
 C   -0.7707443229   -1.0448165996   -0.0256531626
 C   -0.4255275901   -2.4253213931   0.0478002238
 H   0.6178388448   -2.7037385473   -0.1072501248
 C   -1.3559717355   -3.4086844147   0.2990186667
 C   -2.7538199662   -3.0896058456   0.4995490636
 C   -3.1024071118   -1.6844703861   0.405852988
 H   0.5730499766   4.6318427492   -0.9030998339
 H   1.5582853781   2.3788716295   -0.7522800451
 H   -3.3595465681   2.9838234475   -0.150830852
 H   -1.0660015796   -4.459878124   0.3523282806
 H   -4.1435498454   -1.3854422434   0.5343322419
 C   1.6040714511   -0.2658890251   -0.5691213822
 C   2.4834466374   -0.8342141587   0.3899614203
 C   2.1046600358   -0.0162424147   -1.8607804326
 C   3.8001181325   -1.1625060446   0.0249124984
 C   3.4162246033   -0.3372025327   -2.2081983653
 H   1.4350640407   0.413510072   -2.6081707106
 C   4.2679932861   -0.9209415253   -1.2645879021
 H   4.4607372453   -1.5973054594   0.774441785
 H   3.7701675538   -0.1417019264   -3.2229091663
 H   5.2941021561   -1.1812444356   -1.5315859169
 C   2.0442048053   -1.0076511178   1.8011675581
 O   0.9892883861   -0.6158015856   2.2564798942
 O   2.9516617336   -1.6463745426   2.5604898928
 H   2.5920976219   -1.6956019478   3.4633022376
 O   -2.5779120714   0.565791736   0.0593458122
 O   -3.6349600084   -3.958065033   0.736383629
 O   -2.0400376915   5.1657940715   -0.6307157166
 H   -1.3748606152   5.8461299698   -0.8139177716
