18
charge=0,multiplicity=1,solvent=cyclohexane
C   -2.487145   0.689483   0.000000
C   -1.243427   1.399928   -0.000000
C   0.000000   0.721427   -0.000000
C   0.000000   -0.721427   0.000000
C   -1.243427   -1.399928   0.000000
C   -2.487145   -0.689483   0.000000
H   1.248460   2.492688   -0.000000
H   -3.424392   1.249617   0.000000
H   -1.248460   2.492688   -0.000000
C   1.243427   1.399928   -0.000000
C   1.243427   -1.399928   -0.000000
H   -1.248460   -2.492688   0.000000
H   -3.424392   -1.249617   0.000000
C   2.487145   -0.689483   -0.000000
C   2.487145   0.689483   -0.000000
H   1.248460   -2.492688   -0.000000
H   3.424392   -1.249617   -0.000000
H   3.424392   1.249617   -0.000000