18
charge=0,multiplicity=1,solvent=ethanol
 C   -2.7521386346   -1.0983091773   0.0000710111
 C   -1.4671371749   -1.6658839993   0.0000721189
 C   -0.3457531593   -0.8517623189   -0.0000134521
 C   -0.475683661   0.5994638151   -0.0000918551
 C   -1.8091676099   1.1468417925   -0.0000556019
 C   -2.9061356509   0.3129799732   0.0000076455
 H   -3.6306630842   -1.7451090632   0.0001353272
 H   -1.3239990712   -2.7476598948   0.0001239817
 C   0.6811489445   1.3638042457   -0.0000483463
 H   -1.9207589658   2.2311475994   -0.0000705391
 H   -3.9110187558   0.7413853572   0.0000325171
 C   1.9749570415   0.6862433082   -0.0001086118
 C   2.0645444492   -0.7220567689   -0.0003688135
 H   2.9092644137   1.2477834856   0.0000598405
 O   0.8721088511   -1.4611189189   -0.000054457
 O   3.0935055843   -1.3945756839   0.0002547218
 O   0.6065761229   2.7059149687   0.0002085613
 H   1.4911923604   3.0999812794   0.0002809515
