22
charge=0,multiplicity=1,solvent=cyclohexane
 C   -2.8621667082   -1.1484194076   -0.3724192477
 C   -1.4661819634   -1.1479104479   -0.3723894547
 C   -0.7424784521   -0.0000004961   -0.0000008696
 C   -1.4661838342   1.1479076901   0.3723899026
 C   -2.8621685836   1.1484145461   0.3724192118
 C   -3.5672319365   -0.000002813   -0.0000006177
 H   -3.4024910481   -2.0493563926   -0.6732598914
 H   -0.9278773997   -2.0438466955   -0.6885368614
 H   -0.927880945   2.0438441294   0.68853938
 H   -3.4024944002   2.0493503402   0.6732607923
 H   -4.6597533085   -0.0000037572   -0.0000004468
 C   0.7424784513   -0.0000006193   0.0000006918
 C   1.4661840262   1.1479074422   -0.3723900935
 C   1.4661817725   -1.14791069   0.3723892806
 C   2.8621687744   1.1484140617   -0.3724194117
 H   0.9278812851   2.0438439669   -0.6885395815
 C   2.8621665164   -1.1484198808   0.3724190811
 H   0.9278770576   -2.043846844   0.688536696
 C   3.5672319373   -0.0000034074   0.0000004393
 H   3.4024947424   2.049349762   -0.6732610027
 H   3.4024907074   -2.0493569522   0.6732597341
 H   4.6597533089   -0.000004535   0.0000002692
