58
charge=0,multiplicity=1,solvent=chlorobenzene
 N   2.0299929945   -0.000766772   -0.0001092576
 N   0.0007249677   1.9529208904   0.0001300531
 N   -2.0299928234   0.0007655361   -0.0001098265
 N   -0.0007251625   -1.9529218771   0.000134137
 C   2.7945322074   -1.144863359   0.0000299315
 C   4.1836232421   -0.7096431738   0.0000360015
 C   4.1841433129   0.7065135963   0.0000419088
 C   2.7953718624   1.142757218   0.0000293774
 C   1.1001176358   2.7591525543   0.0000287125
 C   0.7055436982   4.1753678092   -0.0000328311
 C   -0.702422102   4.1758970202   -0.0000318352
 C   -1.0980603224   2.7599792888   0.0000310745
 C   -2.7945258569   1.1448574122   0.0000349489
 C   -4.1836201371   0.7096432918   0.0000429527
 C   -4.1841465559   -0.706513334   0.0000401233
 C   -2.7953777937   -1.1427633619   0.0000324306
 C   -1.1001171402   -2.7591543817   0.0000222125
 C   -0.7055438515   -4.1753673506   -0.000033934
 C   0.7024222618   -4.1758968405   -0.0000349313
 C   1.0980609829   -2.7599819112   0.0000224252
 H   1.0118379808   -0.0004124784   -0.0002669564
 H   -1.0118378206   0.0003933823   -0.000258046
 C   -5.3821975093   1.4310680485   0.0000634762
 C   -6.5748577745   0.7083970663   0.0000951648
 H   -5.3745662774   2.5224745003   0.0000703056
 H   -7.5284725287   1.2411283848   0.0001261887
 C   -5.3832585869   -1.4270489789   0.0000573435
 C   -6.5753822682   -0.7034933779   0.0000922671
 H   -5.376432631   -2.5184609446   0.000060362
 H   -7.5293927802   -1.2355156904   0.0001214114
 C   5.383250469   1.4270567596   0.0000668014
 C   6.5753785104   0.7035084004   0.0000973817
 H   5.3764165435   2.5184686071   0.0000749239
 H   7.5293861183   1.2355358482   0.0001298219
 C   5.3822058743   -1.4310603564   0.0000534304
 C   6.5748615102   -0.7083822001   0.0000912199
 H   5.3745825534   -2.5224669346   0.0000554517
 H   7.5284792576   -1.2411082074   0.0001205613
 C   -1.429544159   -5.3673623174   -0.0000978419
 C   -0.7061640242   -6.5661547127   -0.0001593646
 H   -2.5213343918   -5.3607796063   -0.0001004566
 H   -1.2405593621   -7.5191406813   -0.0002114869
 C   1.4255277878   -5.3684347112   -0.000100164
 C   0.7012477556   -6.5666836188   -0.0001604705
 H   2.517322812   -5.3626686731   -0.0001038637
 H   1.2349263047   -7.5200712135   -0.0002132015
 C   -1.4255276135   5.3684332153   -0.0000938837
 C   -0.701246836   6.5666835453   -0.0001521805
 H   -2.5173225947   5.362669443   -0.0000955959
 H   -1.234927337   7.5200700286   -0.0002010968
 C   1.4295441378   5.3673610947   -0.0000958936
 C   0.7061633386   6.5661548478   -0.0001532364
 H   2.5213343299   5.3607794049   -0.0000994878
 H   1.2405600737   7.5191400508   -0.0002030712
 N   2.37876778   -2.39175398   0.0000220166
 N   -2.3805473158   -2.3899645191   0.0000233789
 N   -2.3787673579   2.3917537675   0.0000301087
 N   2.3805466112   2.3899645514   0.0000250084
