37
charge=0,multiplicity=1,solvent=ethanol
C   1.904780   2.953258   -0.562180
C   1.639408   1.602990   -0.500055
C   0.319124   1.102585   -0.291502
C   -0.709320   2.100132   -0.185539
C   -0.452978   3.466134   -0.243098
C   0.858490   3.906787   -0.423064
C   -0.025039   -0.269733   -0.234319
C   -2.370785   0.442498   0.027192
C   -1.427314   -0.603641   -0.041152
C   -1.938538   -1.928782   0.135363
H   -1.222239   -2.751850   0.137485
C   -3.275282   -2.203694   0.305929
C   -4.269415   -1.145689   0.335461
C   -3.739990   0.213253   0.202967
H   2.928153   3.301845   -0.723148
H   2.456935   0.894217   -0.624596
H   -1.274288   4.177377   -0.156094
H   -3.627764   -3.228561   0.437788
H   -4.429387   1.057036   0.247671
C   0.954800   -1.337741   -0.472068
C   2.134099   -1.541864   0.301086
C   0.732023   -2.189759   -1.575548
C   3.063248   -2.525170   -0.094550
C   1.655758   -3.160516   -1.947663
H   -0.170985   -2.047272   -2.172263
C   2.837016   -3.325327   -1.207984
H   3.963006   -2.664665   0.503847
H   1.463848   -3.781786   -2.825308
H   3.569685   -4.081414   -1.497030
C   2.342924   -0.819143   1.580805
O   1.536345   -0.088444   2.121759
O   3.549385   -1.063502   2.132376
H   3.581951   -0.574722   2.972699
O   -2.007575   1.739764   -0.049727
O   -5.494532   -1.335334   0.472672
O   1.083551   5.231202   -0.471069
H   2.025648   5.410839   -0.609620