23
charge=0,multiplicity=1,solvent=ethanol
 C   -3.6357700681   -0.7529664252   -0.0000240241
 C   -2.3851063044   -1.4134398651   -0.0000288505
 C   -1.1723721608   -0.6950834498   -0.0000252337
 C   -1.2295468795   0.7505188867   -0.0000147318
 C   -2.484460791   1.3821991792   -0.0000105702
 C   -3.6866804967   0.6337819713   -0.0000154422
 C   0.0000003487   1.4599327674   -0.0000094447
 C   1.2295473946   0.7505185716   -0.000013868
 C   1.1723723141   -0.6950837474   -0.0000245984
 C   2.3851062633   -1.4134404751   -0.0000272247
 H   2.328177348   -2.5036025512   -0.0000340476
 C   3.6357702008   -0.7529673536   -0.0000214386
 C   3.6866809808   0.63378103   -0.0000128629
 C   2.4844614715   1.3821985443   -0.000008825
 H   -4.5561434966   -1.3405372857   -0.0000272988
 H   -2.3281776635   -2.5036019556   -0.0000356647
 H   -2.5263372641   2.4743070383   -0.0000033483
 H   -4.6463631473   1.1543482095   -0.0000117677
 H   0.0000004882   2.5523287234   -0.0000016873
 H   4.5561434773   -1.3405384516   -0.0000239939
 H   4.6463637647   1.1543470235   -0.0000084811
 H   2.5263382207   2.4743063931   -0.0000015582
 N   -0.0000000141   -1.381440778   -0.0000290378
