137
charge=0,multiplicity=1,solvent=diethylether
N   -0.730864   2.892806   -0.431870
N   -1.974592   0.431031   0.620472
N   0.818325   -0.455224   1.305830
N   1.887965   2.113659   0.332492
C   -0.113627   4.082629   -0.808968
C   -1.116119   5.053797   -1.235123
C   -2.340618   4.399315   -1.072782
C   -2.044305   3.088767   -0.581124
C   -3.193351   2.306082   -0.298942
C   -3.160746   1.062911   0.303615
C   -4.363899   0.251270   0.750920
C   -3.714249   -0.960894   1.465151
C   -2.228219   -0.759379   1.223805
C   -1.284430   -1.703135   1.636766
C   0.122020   -1.586220   1.688140
C   1.034230   -2.563897   2.231618
C   2.303608   -1.976305   2.211259
C   2.130795   -0.646835   1.620770
C   3.161293   0.302570   1.403222
C   3.054775   1.560934   0.814913
C   4.165114   2.500110   0.608722
C   3.632503   3.609587   -0.000859
C   2.196378   3.353980   -0.163055
C   1.273651   4.272937   -0.705350
H   -1.701024   -2.626998   2.039648
H   4.159123   0.011981   1.729031
H   1.669032   5.234336   -1.035046
C   -0.856551   6.445140   -1.703491
H   -0.312942   7.033017   -0.943649
H   -0.233009   6.456631   -2.614446
H   -1.801461   6.959032   -1.925900
C   4.348392   4.834702   -0.482088
H   3.732860   5.728105   -0.284036
H   5.274571   4.969149   0.098904
C   4.692757   4.774874   -1.978739
H   3.783340   4.661426   -2.589557
H   5.209847   5.691723   -2.303083
H   5.347749   3.916071   -2.194113
C   5.589080   2.247400   0.983845
H   5.674805   1.790866   1.982334
H   6.073435   1.555865   0.274986
H   6.176019   3.176657   0.984686
C   0.661238   -3.918708   2.737940
H   1.076213   -4.100670   3.743148
H   -0.427737   -4.050521   2.796723
H   1.051859   -4.717961   2.083732
C   3.578337   -2.491722   2.667595
C   3.888820   -3.747463   3.055844
H   4.392834   -1.760533   2.687705
H   4.905887   -3.984817   3.376975
H   3.170564   -4.567249   3.051607
C   -3.784202   4.552834   -1.143416
O   -4.469814   5.507633   -1.466907
C   -4.393547   3.164470   -0.694664
H   -4.941747   2.759721   -1.558799
H   -4.019573   -1.903242   0.988315
H   -4.920455   0.852427   1.491032
C   -4.042083   -1.035996   2.963537
H   -5.125059   -1.150067   3.108782
H   -3.541856   -1.893753   3.437012
H   -3.706154   -0.120061   3.475233
C   -5.345585   -0.099508   -0.382077
H   -5.583237   0.809492   -0.947627
H   -4.867893   -0.800395   -1.084342
C   -6.680645   -0.682573   0.113413
H   -7.130095   -0.027568   0.871887
H   -7.373990   -0.741045   -0.740711
C   -6.556906   -2.073304   0.694804
O   -6.796777   -2.386292   1.839693
O   -6.103060   -2.927422   -0.235444
C   -5.410273   3.341543   0.414819
O   -6.566751   2.990223   0.362498
O   -4.861450   3.925399   1.488246
C   -5.717152   4.133589   2.615461
H   -5.102149   4.624989   3.377971
H   -6.569657   4.771707   2.341496
H   -6.098135   3.173394   2.993689
C   -5.599372   -4.231334   0.162545
H   -6.348035   -4.982171   -0.121339
H   -5.499582   -4.237416   1.257426
C   -4.292962   -4.387284   -0.545632
H   -3.528990   -3.676249   -0.219893
C   -4.018854   -5.184118   -1.592819
C   -4.965598   -6.218400   -2.143078
H   -5.233831   -5.977691   -3.186139
H   -4.474785   -7.206350   -2.168942
H   -5.892994   -6.319240   -1.565398
C   -2.718268   -5.075314   -2.358016
H   -2.162880   -6.028168   -2.267519
H   -2.992160   -5.021267   -3.428913
C   -1.793840   -3.900497   -2.031238
H   -2.399488   -2.994597   -1.872254
H   -1.263225   -4.083311   -1.081217
C   -0.800202   -3.634944   -3.164905
H   -0.293109   -4.578165   -3.436626
H   -1.378659   -3.336105   -4.057900
C   0.274700   -2.567580   -2.894528
H   0.782343   -2.403885   -3.863045
C   -0.330420   -1.225954   -2.461463
H   -1.081248   -0.869212   -3.185289
H   -0.824069   -1.310861   -1.480932
H   0.443828   -0.447190   -2.377190
C   1.356575   -3.051879   -1.912023
H   1.001861   -2.946584   -0.870647
H   1.529071   -4.131739   -2.068513
C   2.690428   -2.320723   -2.076114
H   2.534797   -1.239398   -1.928270
H   3.032983   -2.438847   -3.121243
C   3.775558   -2.816129   -1.123389
H   3.487482   -2.554681   -0.092281
H   3.805702   -3.920610   -1.153428
C   5.193950   -2.284931   -1.391641
H   5.518939   -2.673304   -2.376876
C   5.225743   -0.756273   -1.482309
H   6.241890   -0.378141   -1.664981
H   4.594408   -0.394084   -2.307174
H   4.847991   -0.296994   -0.557511
C   6.156115   -2.866356   -0.335565
H   5.730792   -2.690049   0.667971
H   6.156790   -3.962212   -0.461534
C   7.599788   -2.336773   -0.367389
H   8.302520   -3.150318   -0.118466
H   7.855777   -2.031472   -1.396199
C   7.839263   -1.182555   0.612567
H   7.042034   -0.428619   0.506960
H   7.732469   -1.578884   1.638284
C   9.196107   -0.473013   0.491170
H   9.986152   -1.248003   0.508956
C   9.422487   0.459210   1.686175
H   10.399407   0.965382   1.624585
H   8.643704   1.240644   1.722352
H   9.385167   -0.091903   2.639705
C   9.324061   0.303400   -0.824854
H   9.204984   -0.346821   -1.704793
H   8.553921   1.091921   -0.885032
H   10.308158   0.792691   -0.903981
Mg   0.021201   1.195635   0.394391