24
charge=0,multiplicity=1,solvent=2-methylpentane
C   -4.846318   -0.000002   -0.000011
C   -4.137595   -1.220799   -0.000030
C   -2.756166   -1.237789   -0.000021
C   -2.009315   0.000001   0.000010
C   -2.756168   1.237790   0.000030
C   -4.137598   1.220797   0.000020
H   -5.938519   -0.000003   -0.000019
H   -4.688044   -2.165041   -0.000053
H   -2.206256   -2.180831   -0.000035
H   -2.206261   2.180833   0.000053
H   -4.688049   2.165037   0.000035
C   -0.629076   0.000003   0.000021
C   0.629076   0.000003   0.000029
C   2.009315   0.000001   0.000012
C   2.756165   -1.237789   0.000028
C   2.756168   1.237790   -0.000023
C   4.137595   -1.220800   0.000011
H   2.206256   -2.180831   0.000054
C   4.137598   1.220797   -0.000039
H   2.206261   2.180834   -0.000036
C   4.846318   -0.000002   -0.000023
H   4.688044   -2.165041   0.000024
H   4.688049   2.165037   -0.000065
H   5.938519   -0.000003   -0.000036