24
charge=0,multiplicity=1,solvent=2-methylpentane
 C   -4.8406493766   -0.0000259066   -0.0000135981
 C   -4.1298316479   1.2221766923   -0.0000159284
 C   -2.7519015012   1.2403594664   -0.0000240707
 C   -1.9997444305   -0.0000161237   -0.0000301472
 C   -2.7518929527   -1.2403968841   -0.0000279976
 C   -4.1298232065   -1.2222235946   -0.0000197662
 H   -5.9320599731   -0.0000296695   -0.0000072218
 H   -4.6810397453   2.1658235189   -0.0000112992
 H   -2.2026570427   2.1832777984   -0.0000260326
 H   -2.2026420054   -2.1833114077   -0.0000328968
 H   -4.6810248097   -2.1658742071   -0.0000180559
 C   -0.6297382014   -0.000011429   -0.0000389511
 C   0.6297377342   -0.0000075079   -0.000045763
 C   1.9997440912   -0.0000062012   -0.0000318545
 C   2.7518957333   1.2403726774   -0.0000261351
 C   2.7518980928   -1.2403836425   -0.0000211188
 C   4.1298259663   1.2221959638   -0.0000120025
 H   2.2026471099   2.1832885946   -0.0000336759
 C   4.1298282716   -1.2222043087   -0.0000070869
 H   2.2026512671   -2.1833005782   -0.0000248993
 C   4.8406490555   -0.0000035016   -0.0000022481
 H   4.6810299115   2.1658452084   -0.0000083994
 H   4.6810340201   -2.1658524927   0.0000002616
 H   5.9320596396   -0.0000024651   0.0000088876
