18
charge=0,multiplicity=1,solvent=ethanol
C   -2.762641   -1.097665   0.000077
C   -1.487466   -1.674325   0.000072
C   -0.351891   -0.855891   -0.000029
C   -0.466556   0.603093   -0.000119
C   -1.782557   1.154514   -0.000071
C   -2.893394   0.318687   0.000005
H   -3.651525   -1.730059   0.000155
H   -1.343792   -2.755839   0.000133
C   0.714287   1.355907   -0.000067
H   -1.894685   2.238034   -0.000084
H   -3.893251   0.758906   0.000036
C   1.982253   0.688542   -0.000139
C   2.071090   -0.716782   -0.000488
H   2.918708   1.247352   0.000087
O   0.845096   -1.458878   -0.000076
O   3.066088   -1.428593   0.000345
O   0.617334   2.697921   0.000220
H   1.497659   3.101521   0.000318