37
charge=0,multiplicity=1,solvent=1,4-dioxane
 C   1.4054756425   -0.7933774636   -2.3870135026
 C   0.3320668783   -0.0906132563   -1.8859830143
 C   0.3847054441   0.439114665   -0.5673656717
 C   1.5788166208   0.255391554   0.2111469768
 C   2.7198801347   -0.402604199   -0.3761485277
 C   2.5967257091   -0.948818242   -1.6455011026
 H   1.351404063   -1.2112781786   -3.3951146999
 H   -0.5479803897   0.0754811324   -2.5029672565
 C   -0.7078968197   1.112826471   0.0680487332
 C   1.5967695589   0.672041081   1.568979162
 H   3.4379738431   -1.4712878678   -2.1003246144
 C   0.5206715768   1.3177324938   2.1389972039
 C   -0.6417894099   1.5544661294   1.3753974679
 H   2.4787569044   0.4420051457   2.166090349
 H   0.5515554351   1.6290456632   3.1849744356
 H   -1.503754662   2.0601187752   1.8106183774
 N   3.9117020034   -0.4926240528   0.3743700242
 C   4.6300637964   0.7622567996   0.5817958646
 H   3.9354586712   1.5792022396   0.8117009956
 H   5.3321540398   0.6578591997   1.424180472
 H   5.2119215331   1.0541578055   -0.3173085269
 C   4.809581894   -1.586492933   0.0584965446
 H   4.2491425344   -2.5290840712   -0.0157580465
 H   5.3717822017   -1.4386400805   -0.8879626874
 H   5.5506061703   -1.6867239027   0.8668388264
 S   -2.3112713362   1.2744383563   -0.7287846474
 O   -2.1510968086   1.6268692469   -2.1395111387
 O   -3.1609789032   2.0803141323   0.1520393653
 N   -2.9797201708   -0.2734166031   -0.7168530735
 H   -2.4731408447   -0.8954237559   -1.3492839948
 C   -3.2548435857   -0.8628890647   0.5783015986
 H   -4.1075755317   -1.5589073027   0.4942973293
 H   -3.5671461563   -0.0781515291   1.2800973005
 C   -2.0820873183   -1.6518728564   1.1400180289
 O   -1.1821175556   -2.0949476426   0.4697744164
 O   -2.1921082973   -1.836015005   2.4609265894
 H   -1.4399898654   -2.3841208837   2.7483514434
